/*--------------------------------*- C++ -*----------------------------------*\
| =========                 |                                                 |
| \\      /  F ield         | OpenFOAM: The Open Source CFD Toolbox           |
|  \\    /   O peration     | Version:  2.3.0                                 |
|   \\  /    A nd           | Web:      www.OpenFOAM.org                      |
|    \\/     M anipulation  |                                                 |
\*---------------------------------------------------------------------------*/
FoamFile
{
    version     2.0;
    format      ascii;
    class       volScalarField;
    location    "0";
    object      nuTilda;
}
// * * * * * * * * * * * * * * * * * * * * * * * * * * * * * * * * * * * * * //

#include "include/initialConditions"

dimensions      [ 0 2 -1 0 0 0 0 ];

internalField   uniform $nut_internal;

boundaryField
{
    #include "include/frontAndBackPatches"

    #include "include/symmetryPatch"

    inlet
    {
        type            outletInlet;
        outletValue     uniform $nut_farfield;
        value           uniform $nut_farfield;
    }

    plate
    {
        type            fixedValue;
        value           uniform 0;
    }

    outlet
    {
        type            inletOutlet;
        inletValue      uniform $nut_farfield;
        value           uniform $nut_farfield;
    }

    atmosphere
    {
        type            inletOutlet;
        inletValue      uniform $nut_farfield;
        value           uniform $nut_farfield;
    }
}


// ************************************************************************* //
