/*--------------------------------*- C++ -*----------------------------------*\
| =========                 |                                                 |
| \\      /  F ield         | OpenFOAM: The Open Source CFD Toolbox           |
|  \\    /   O peration     | Version:  2.3.0                                 |
|   \\  /    A nd           | Web:      www.OpenFOAM.org                      |
|    \\/     M anipulation  |                                                 |
\*---------------------------------------------------------------------------*/
FoamFile
{
    version     2.0;
    format      ascii;
    class       volScalarField;
    object      p;
}
// * * * * * * * * * * * * * * * * * * * * * * * * * * * * * * * * * * * * * //

#include "include/initialConditions"

dimensions      [1 -1 -2 0 0 0 0];

internalField   uniform $p_internal;

boundaryField
{
    #include "include/frontAndBackPatches"

    #include "include/symmetryPatch"

    inlet
    {
        type            fixedValue;
        value           uniform $p_inlet;
    }

    plate
    {
        type            zeroGradient;
    }

    outlet
    {
        type            fixedValue;
        value           uniform $p_outlet;
    }

    atmosphere
    {
        type            zeroGradient;
    }
}


// ************************************************************************* //
