/*--------------------------------*- C++ -*----------------------------------*\
| =========                 |                                                 |
| \\      /  F ield         | OpenFOAM: The Open Source CFD Toolbox           |
|  \\    /   O peration     | Version:  2.3.0                                 |
|   \\  /    A nd           | Web:      www.OpenFOAM.org                      |
|    \\/     M anipulation  |                                                 |
\*---------------------------------------------------------------------------*/
FoamFile
{
    version     2.0;
    format      ascii;
    class       dictionary;
    location    "system";
    object      fvSchemes;
}
// * * * * * * * * * * * * * * * * * * * * * * * * * * * * * * * * * * * * * //

ddtSchemes
{
    default             steadyState;
}

gradSchemes
{
    default             Gauss linear;
}

divSchemes
{
    default             none;

    div(phi,U)          bounded Gauss linearUpwindV grad(U);
    div((muEff*dev2(T(grad(U)))))      Gauss linear;
    div(phi,e)          bounded Gauss linearUpwind grad(e);
    div(phi,nuTilda)    bounded Gauss linearUpwind grad(nuTilda);
    div(phid,p)         bounded Gauss linearUpwind grad(p);
    div(phi,Ekp)        bounded Gauss linearUpwind grad(Ekp);
}

laplacianSchemes
{
    default         Gauss linear corrected;
}

interpolationSchemes
{
    default         linear;
}

snGradSchemes
{
    default         corrected;
}

fluxRequired
{
    default         no;
    p;
    pCorr;
}

// ************************************************************************* //
