/*--------------------------------*- C++ -*----------------------------------*\
| =========                 |                                                 |
| \\      /  F ield         | OpenFOAM: The Open Source CFD Toolbox           |
|  \\    /   O peration     | Version:  2.3.0                                 |
|   \\  /    A nd           | Web:      www.OpenFOAM.org                      |
|    \\/     M anipulation  |                                                 |
\*---------------------------------------------------------------------------*/
FoamFile
{
    version     2.0;
    format      ascii;
    class       dictionary;
    location    "system";
    object      fvSolution;
}
// * * * * * * * * * * * * * * * * * * * * * * * * * * * * * * * * * * * * * //

solvers
{
    p
    {
        solver          PCG;
        preconditioner  DIC;
        tolerance       1e-20;
        relTol          0;
    }

    "(U|e|nuTilda)"
    {
        solver          PBiCG;
        preconditioner  DILU;
        tolerance       1e-20;
        relTol          0;
    }
}

SIMPLE
{
    nNonOrthogonalCorrectors 0;
    rhoMin          rhoMin [1 -3 0 0 0] 0.1;
    rhoMax          rhoMax [1 -3 0 0 0] 2.0;
    transonic       no;

    residualControl
    {
        "(p|U|e|nuTilda)"       1e-12;
    }
}

relaxationFactors
{
    fields
    {
        p               0.3;
        rho             1.0;
    }
    equations
    {
        U               0.7;
        e               0.7;
        nuTilda         0.7;
    }
}

// ************************************************************************* //
