/*--------------------------------*- C++ -*----------------------------------*\
| =========                 |                                                 |
| \\      /  F ield         | OpenFOAM: The Open Source CFD Toolbox           |
|  \\    /   O peration     | Version:  2.3.0                                 |
|   \\  /    A nd           | Web:      www.OpenFOAM.org                      |
|    \\/     M anipulation  |                                                 |
\*---------------------------------------------------------------------------*/
FoamFile
{
    version     2.0;
    format      ascii;
    class       dictionary;
    object      sampleDict;
}
// * * * * * * * * * * * * * * * * * * * * * * * * * * * * * * * * * * * * //

setFormat raw;

surfaceFormat raw;

interpolationScheme cellPoint;

fields
(
    T
    U
    mut
    nuTilda
);

sets
(
);

surfaces
(
    interpolatedPlane
    {
        type            plane;
        basePoint       (0 -0.005 0);
        normalVector    (0 1 0);
        interpolate     true;
    }
);

